[General]
repeat = 1
sim-time-limit = 10s
**.param-recording = false
**.vector-recording = false
**.scalar-recording = false
**.queue[*].ecnThreshold = 50

[compare-agg-inc]
network = simnet.simulations.networks.FatTree
**.k = 4
**.workers[*].flowSize = 1MB
**.groupManager.placementPolicy = "random"
**.groupManager.aggTreeType = "sptree"
**.groupManager.numGroups = 1
**.groupManager.numWorkers = 3
**.groupManager.jobFraction = 0.5