[General]
repeat = 1
sim-time-limit = 10s
**.param-recording = false
**.vector-recording = false
**.scalar-recording = false
**.queue[*].ecnThreshold = 50

[compare-agg-inc]
network = simnet.simulations.networks.FatTree
**.metricCollector.job-*-RoundFinishTime:vector.vector-recording = true
**.ecmpFlow = true
**.k = 4
**.load = 1.0
**.flowSizeMean = 1MB
**.tpManager.trafficPattern = "uniform"
**.numApps = 1
**.apps[0].typename = "UnicastEchoApp"
**.workers[*].flowSize = 1MB
**.workers[*].numRounds = 5
**.groupManager.placementPolicy = "random"
**.groupManager.aggTreeType = "edge"
**.groupManager.numGroups = 1
**.groupManager.numWorkers = 3
**.groupManager.jobFraction = 1.0