[General]
network = simnet.simulations.networks.SpineLeafNetwork
**.param-recording = false
**.vector-recording = false
**.scalar-recording = false
**.bin-recording = false
**.vector-record-eventnumbers = false
SpineLeafNetwork.bandwidth = 100Gbps
SpineLeafNetwork.linkDelay = 2.25us
SpineLeafNetwork.pods[*].bandwidth = 25Gbps
SpineLeafNetwork.pods[*].linkDelay = 2.25us
SpineLeafNetwork.spineNumber = 4
SpineLeafNetwork.podNumber = 8
SpineLeafNetwork.hostNumber = 16

[Config spineleaf]
sim-time-limit = 10ms
#**.app.flowIdealCompletionTime:vector.vector-recording = true
#**.app.flowRealCompletionTime:vector.vector-recording = true
#**.hosts[*].app.flowLengthMean = cdf_mean("FbHdp_distribution")
#**.hosts[*].app.flowLength = cdf("FbHdp_distribution")
#**.hosts[*].app.load = 0.5
**.hosts[*].numApps = 2
**.hosts[*].apps[0].typename = "UnicastSenderApp"
**.hosts[*].apps[0].port = 1000
**.hosts[*].apps[0].destAddress = RandomPattern("Uniform")
**.hosts[*].apps[0].destPort = 1001
**.hosts[*].apps[1].typename = "UnicastEchoApp"
**.hosts[*].apps[1].port = 1001
