[General]
network = simnet.networks.SpineLeafNetwork
**.param-recording = false
**.vector-recording = false
**.scalar-recording = false
**.bin-recording = false
**.vector-record-eventnumbers = false
SpineLeafNetwork.bandwidth = 100Gbps
SpineLeafNetwork.linkDelay = 2.25us
SpineLeafNetwork.pods[*].bandwidth = 25Gbps
SpineLeafNetwork.pods[*].linkDelay = 2.25us
SpineLeafNetwork.spineNumber = 4
SpineLeafNetwork.podNumber = 8
SpineLeafNetwork.hostNumber = 16

[Config FlowDistribution]
sim-time-limit = 10ms
**.app.flowIdealCompletionTime:vector.vector-recording = true
**.app.flowRealCompletionTime:vector.vector-recording = true
**.app.packetLength = 1500B
**.controller.trafficPattern = "random"
**.hosts[*].app.typename = "FlowApp"
**.hosts[*].app.flowLengthMean = cdf_mean("FbHdp_distribution")
**.hosts[*].app.flowLength = cdf("FbHdp_distribution")
**.hosts[*].app.load = 0.5
**.pods[*].hosts[*].app.destAddress = -2 # let controller decide



[Config FlowAggregation]
**.controller.trafficPattern = "random"
**.controller.aggrGroupPlacePolicy = "random"
**.hosts[*].app.typename = "FlowApp"
**.hosts[*].app.flowLengthMean = cdf_mean("FbHdp_distribution")
**.hosts[*].app.flowLength = cdf("FbHdp_distribution")
**.hosts[*].app.load = 0.5
**.pods[*].hosts[*].app.destAddress = -2
**.pods[*].hosts[*].app.groupAddress = -2
**.switch.ecmpFlow = true
**.switches[*].ecmpFlow = true