[General]
repeat = 1
sim-time-limit = 10s
**.param-recording = false
**.vector-recording = false
**.scalar-recording = false
**.queue[*].ecnThreshold = 50

[RandomGreateApp]
network = simnet.simulations.networks.FatTree
**.k = 4
**.*.numApps = 2
**.*.apps[0].typename = "UnicastSenderApp"
**.*.apps[1].typename = "UnicastEchoApp"
**.load = 0.7
**.trafficPattern = "uniform"
**.flowSizeMean = cdf_mean("FbHdp_distribution")
**.flowSize = cdf("FbHdp_distribution")
