[General]
repeat = 1
sim-time-limit = 10s
**.param-recording = false
**.vector-recording = false
**.scalar-recording = false
**.queue[*].ecnThreshold = 50

[Config FlowDistribution]
**.sender[*].app.typename = "FlowApp"
**.sender[*].app.flowLengthMean = cdf_mean("FbHdp_distribution")
**.sender[*].app.flowLength = cdf("FbHdp_distribution")
**.sender[*].app.load = 0.5

[RandomCreateApp]
repeat = 10
network = simnet.simulations.networks.FatTree
**.apps[0].fct:vector.vector-recording = true
**.apps[0].idealFct:vector.vector-recording = true
**.apps[0].flowSize:vector.vector-recording = true

**.load = ${load=0.1..0.9 step 0.1}
**.flowSizeMean = cdf_mean("FbHdp_distribution")
**.apps[*].flowSize= cdf("FbHdp_distribution")
**.numFlows = 10

**.k = 4
**.*.numApps = 1
# **.*.apps[0].typename = "UnicastSenderApp"
**.*.apps[0].typename = "UnicastEchoApp"
**.trafficPattern = "uniform"

[RandomCreateWorker]
repeat = 1
network = simnet.simulations.networks.FatTree
**.apps[0].fct:vector.vector-recording = true
**.apps[0].idealFct:vector.vector-recording = true
**.apps[0].flowSize:vector.vector-recording = true

# **.load = ${load=0.1..0.9 step 0.1}

#**.flowSizeMean = cdf_mean("FbHdp_distribution")
#**.apps[*].flowSize= cdf("FbHdp_distribution")
#**.numFlows = 50
#**.trafficPattern = "uniform"

**.k = 4
#**.*.numWorkers = 1
#**.*.numServers = 1
#**.*.pses[0].typename = "ParameterServerApp"
#**.*.workers[0].typename = "SRWorker"
**.groupManager.placementPolicy = "random"
**.groupManager.aggTreeType = ""
**.groupManager.numGroups = 1
